unit swmm5rdiireaderthread;
(**************************************
Thread to read/import the following sections into an RDII db:
[RDII]
;;Node             Unit Hydrograph  Sewer Area
;;--------------------------------------------
  03214025         BC01_5year       1225

[HYDROGRAPHS]
;;                 Rain Gage/
;;Name             Month            R1       T1       K1       R2       T2       K2       R3       T3       K3    {IA_max   IA_rec   IA_init}
;;------------------------------------------------------------------------------------------------------------------
  BC01_1inch       1_inch
  BC01_1inch       All              0.0706   5        3.5      0.0298   17       11.9     0.0706   54.5     38.15
  BC01_2year       2_year
  BC01_2year       All              0.0066   4        1        0.01     11.5     2.875    0.0213   35.5     8.875
  BC01_5year       5_year
  BC01_5year       All              0.0059   5.5      1.1      0.01     17       3.4      0.0379   59.5     11.9

[RAINGAGES]
;;                 Rain      Recd.  Snow   Data       Source           Station    Rain
;;Name             Type      Freq.  Catch  Source     Name             ID         Units
;;-------------------------------------------------------------------------------------
  1_inch           VOLUME    00:15  0      TIMESERIES SYNTH1IN
  2_year           VOLUME    00:15  0      TIMESERIES SYNTH2YR
  5_year           VOLUME    00:15  0      TIMESERIES SYNTH5YR

[TIMESERIES]
;;Name             Date       Time       Value
;;-------------------------------------------------
  SYNTH1IN         01/01/2006 00:00      0.002
  SYNTH1IN         01/01/2006 00:15      0.003

HOWTO:
1) Read [RDII] section to get for each RDII Area:
    RDII loadpoint nodename         -> Sewersheds.JunctionID
    RDII Hydrograph name            -> Sewersheds.SewershedName - link to [HYDROGRAPHS]
    RDII area                       -> Sewersheds.Area
2) Read [HYDROGRAPHS] section to get for each Hydrograph (Sewershed) Name:
    Raingage name                   -> Raingauges.RaingaugeName - link to [RAINGAGES]
    RTKs                            -> RTKPatterns.R1 .. K3
3) Read [RAINGAGES] section to get for each Raingage Name:
    type                            -> "VOLUME"  or "INTENSITY" ( convert to "VOL" by *freq/60 )
    freq                            -> Raingauges.TimeStep
    source                          -> "TIMESERIES"
    Source Name                     -> used only as link to [TIMESERIES]
4) Read [TIMESERIES] section to get for each Source Name:
    Date                            -> Rainfall.DateTime Date
    Time                            -> Rainfall.DateTime Time
    Value                           -> Rainfall.Volume
5) Update each Raingauge record with startdatetime and endatetime

Read [RDII] section and load Sewersheds and RDIIAreas with new records:
  SewershedName = Hydrograph Name
  RDIIAreaName = JunctionID
  Area = RDII Area
  JunctionID = Node
Read [HYDROGRAPHS] section and load Raingauges with new records:
  RaingaugeName = Rain Gage
Also load RTKPatterns with new records:
  RTKPatternName = Hydrograph Name
  R1, T1, K1, . . . K3
Read [RAINGAGES] section and update Raingauges with
  Timestep = freq
Read [TIMESERIES] section and load each into Rainfall table
  Get RaingaugeID by RaingaugeName
  DateTime = Date + Time
  Volume = Value

Data Structures:
SewerShedList:  HydrographName(SewershedName), JunctionID(RDIIAreaName), Area
HydrographList: HydrographName, RaingageName, R1, T1, K1, R2, T2, K2, R3, T3, K3{, AM, AR, AI}
RaingageList:   RaingageName, Freq, TimeSeriesName
TimeSeriesList: TimeSeriesName, DateTime, Value
***************************************)
interface

uses
  Classes, modDatabase, ADODB_TLB, Variants, Uutils;

type
  SWMM5RDIISectionReaderThread = class(TThread)
    constructor CreateIt();
  private
    FSWMM5InpFileName: string;
    FScenarioID: integer;
    FTextFile: TextFile;
    SewerShedList: TStringList;
    HydrographList: TStringList;
    RaingageList: TStringList;
    TimeSeriesList: TStringList;
    SewerShedIDList: TStringList;
    RDIIAreaIDList: TStringList;
    RaingageIDList: TStringList;
    RaingageStartEndList: TStringList;
    RTKPatternIDList: TStringList;
    SewerShed_Raingauge_Mapping_List: TStringList;
    TokList: TStringList;
    NToks: Integer;
    flowunitlabel, sRainGaugeID: string;
    areaUnitID,rainUnitID, iSewerShedCount: integer; //depends on flowunitlabel in the SWMM5 input file
    boOK: boolean;
    Line, S, FeedbackLine: string;
    procedure OpenSWMM5InpFile;
    procedure ReadSWMM5InputFile;
    procedure StripComment;
    procedure ReadOptionSection(S: string);
    procedure ReadRDIISection(S: string);
    procedure ReadHydrographSection(S: string);
    procedure ReadRaingagesSection(S: string);
    procedure ReadTimeseriesSection(S: string);
    procedure CloseSWMM5InpFile;
    procedure AddSewerSheds;
    procedure AddRainGauges;
    procedure AddRTKPatterns;
    procedure AddRTKLinks;
    procedure AddRainfall;
    procedure GetRainGaugeID(strSewerShed:string);
    procedure UpdateRainGaugeStartEndDates;
    procedure UpdateScenarioFlowUnits;
    procedure AddImportLogRecord;
    procedure AddFeedback;
    procedure UpdateSewershedAreasBasedOnRDIIAreaAreas;
    //rm 2010-09-28
    procedure ReadHydrographSection_Pre_Ver_5020(S: string);
    procedure AddRTKPatterns_Pre_Ver_5020;
    { Private declarations }
  public
    { Public declarations }
  protected
    procedure Execute; override;
  published
    destructor Destroy; override;
  end;

implementation
uses windows, mainform, sysutils, dialogs, feedbackWithMemo;

{ Important: Methods and properties of objects in visual components can only be
  used in a method called using Synchronize, for example,

      Synchronize(UpdateCaption);

  and UpdateCaption could look like,

    procedure ReadSWMM5RDIISections.UpdateCaption;
    begin
      Form1.Caption := 'Updated in a thread';
    end; }

{ ReadSWMM5RDIISections }

{*
procedure Tokenize(S: String; T: TStringList; var N: Integer);
//-----------------------------------------------------------------------------
//  Converts a string S into a set of N tokens saved in T.
//  Words between " " are stored as a single token. Characters to right
//  of ';' are ignored.
//-----------------------------------------------------------------------------
const
  // Spaces, tabs, commas, & line feeds are used to separate tokens
  separators: set of Char = [' ',Chr(9),',',Chr(10),Chr(13)];
var
  instring:  Boolean;   // True if currently in a string
  intoken:   Boolean;   // True if currently in a token
  i:         Integer;   // Current position in S
  start:     Integer;   // Start position of item
  len:       Integer;   // Length of item
  c:         Char;      // Current character in S
begin
  // Initialize variables
  T.Clear;
  N := 0;
  intoken := False;
  instring := False;
  start := 1;
  len := 0;

  // Examine each character in S
  i := 1;
  while (i <= Length(S)) do
  begin
    c := S[i];
    if c = ';' then break;     // a comment follows

    if  (c in separators)
    and (not instring) then    // a separator has been found
    begin
      if intoken then          // finish the current token
      begin
        T.Add(Copy(S,start,len));
        intoken := False;
        Inc(N);
      end;
    end

    else if c = Chr(34) then   // a quote has been found
    begin
      if intoken then          // finish current token
      begin
        T.Add(Copy(S,start,len));
        intoken := False;
        Inc(N);
      end;
      if instring then         // finish the current string
      begin
        T.Add(Copy(S,start,len));
        instring := False;
        Inc(N);
      end
      else                     // start new string
      begin
        instring := True;
        start := i+1;
        len := 0;
      end;
    end

    else                       // neither a separator or a quote was found
    begin
      if (not intoken)         // if no current token or string
      and (not instring) then  // then start new token
      begin
        intoken := True;
        start := i;
        len := 1;
      end
      else Inc(len);           // otherwise add on to the current one
    end;

    Inc(i);                    // move to the next character
  end;

  if (intoken)
  or (instring) then           // finish the last token
  begin
    T.Add(Copy(S,start,len));
    Inc(N);
  end;
end;
*}

procedure SWMM5RDIISectionReaderThread.AddFeedback;
var i:integer;
begin
  frmFeedbackWithMemo.feedbackMemo.Lines.Add(FeedbackLine);
end;

procedure SWMM5RDIISectionReaderThread.AddImportLogRecord;
var idx: integer;
begin
  //rm 2009-06-12 - add to log file
  DatabaseModule.LogImport(6, FScenarioID, -1,
    FSWMM5InpFileName, Now,
    frmFeedbackWithMemo.feedbackMemo.Text);
end;

procedure SWMM5RDIISectionReaderThread.AddRainfall;
var boResult, boFirstRecord: boolean;
    i,j: integer;
    sqlStr: string;
    recordsAffected: OleVariant;
    strTimeSeries,strRainGageID,strType,strFreq: string;
    fctr,freq,rain: double;
    sdate1,stime1,sdate2,stime2: string;
begin
  boResult := false;
  for i := 0 to RaingageList.Count - 1 do begin
    //addrainfallrecord - get raingageIDs first
    //timeseriesname, date, time, value
//    Uutils.Tokenize(RaingageList[i], TokList, Ntoks);
    Tokenize(RaingageList[i], TokList, Ntoks);
//rm 2009-06-08 - check for a FILE type
    if (Ntoks > 4) then begin
      strType := TokList[4];
      if strType = 'FILE' then begin
        FeedbackLine := TokList[0] + ' rainfall is in external text file and will not be imported automatically.';
        Synchronize(AddFeedback);
        continue;
      end;
    end;

//Synchronize(AddFeedback('RaingageList[i] = ' + RaingageList[i]);
    if (Ntoks > 3) then begin
      fctr := 1.0;
      strType := TokList[3];
      if strType = 'INTENSITY' then try
        strFreq := TokList[1];
        if pos(':',strFreq) > 0 then
          strFreq := copy(strFreq,pos(':',strFreq)+1,1000);
        freq := strtoFloat(strFreq);
        fctr := freq / 60.0;
      except
        fctr:=1.0;
      end;
      strTimeSeries := TokList[2];
//Synchronize(AddFeedback(strTimeSeries);
      strRainGageID := RainGageIDList[i];
      if (strtoint(strRainGageID) > -1) then begin
//rm 2007-11-26 - get first and last datetimes in this file for this raingauge
        sdate1 := '0';
        stime1 := '0';
        for j := 0 to TimeSeriesList.Count - 1 do begin
          Tokenize(TimeSeriesList[j], TokList, Ntoks);
          if TokList[0] = strTimeSeries then begin
            try
              if Length(sdate1) <= 1 then
                sdate1 := TokList[1];
              if Length(stime1) <= 1 then
                stime1 := TokList[2];
              sdate2 := TokList[1];
              stime2 := TokList[2];
            except
              sdate1 := '0';
              stime1 := '0';
              sdate2 := '0';
              stime2 := '0';
            end;
          end;
        end;
        sqlStr := 'Delete from Rainfall where (RainGaugeID = ' + strRainGageID + ')';
//rm 2007-11-26 add whereclause
        if (Length(sdate1) > 1) then begin
          sqlStr := sqlStr + ' AND ([DateTime] BETWEEN #' + sdate1 + ' ' + stime1 +
          '# AND #' + sdate2 + ' ' + stime2 + '#)';
        end;
        frmMain.Connection.Execute(sqlStr,recordsAffected,adCmdText);
        for j := 0 to TimeSeriesList.Count - 1 do begin
          boFirstRecord := true; //always want to store first record - even if 0 rainfall
          //Uutils.Tokenize(TimeSeriesList[j], TokList, Ntoks);
          Tokenize(TimeSeriesList[j], TokList, Ntoks);
          if TokList[0] = strTimeSeries then begin
            try
              rain := strToFloat(TokList[3]);
            except
              rain := 0;
            end;
            if ((rain > 0) or boFirstRecord) then begin //store only non-zero values - much much faster
              boFirstRecord := false;
              //add a new record to Rainfall Table
              if fctr = 1.0 then begin
                sqlStr := 'Insert into Rainfall (RainGaugeID, [DateTime], Volume, Code) ' +
                          ' Values (' + strRainGageID + ',"' + TokList[1] + ' ' +
                          TokList[2] + '",' + TokList[3] + ',0);';
              end else try
                //rain := strToFloat(TokList[3]);
                rain := rain * fctr;
                sqlStr := 'Insert into Rainfall (RainGaugeID, [DateTime], Volume, Code) ' +
                          ' Values (' + strRainGageID + ',"' + TokList[1] + ' ' +
                          TokList[2] + '",' + floattoStr(rain) + ',0);';

              except
                sqlStr := 'Insert into Rainfall (RainGaugeID, [DateTime], Volume, Code) ' +
                          ' Values (' + strRainGageID + ',"' + TokList[1] + ' ' +
                          TokList[2] + '",' + TokList[3] + ',0);';
              end;
              frmMain.Connection.Execute(sqlStr,recordsAffected,adCmdText);
            end;
          end;
        end;
      end;
      boResult := true;
    end;
  end;
  boOK := boResult;
end;

procedure SWMM5RDIISectionReaderThread.AddRainGauges;
var boResult: boolean;
    i: integer;
    iRaingageID: integer;
    sqlStr: string;
    recordsAffected: OleVariant;
    strTimeStep: string;
begin
  boResult := false;
  //FeedbackLine := inttostr(RaingageList.Count) + ' raingauges';
  //Synchronize(AddFeedback);
  for i := 0 to RaingageList.Count - 1 do begin
    //addraingagerecord - get raingageIDs as we go
    //raingageList has raingagename, timestep, timeseriesname
    //Uutils.Tokenize(RaingageList[i], TokList, Ntoks);
    Tokenize(RaingageList[i], TokList, Ntoks);
    if (Ntoks > 2) then begin
      strTimeStep := TokList[1];
      if pos(':',strTimeStep) > 0 then
        strTimeStep := copy(strTimeStep,pos(':',strTimeStep)+1,1000);
      iRaingageID := modDatabase.DatabaseModule.GetRaingaugeIDForName(TokList[0]);
      if iRaingageID < 0 then begin //add a new one
        sqlStr := 'INSERT INTO Raingauges (RaingaugeName,RaingaugeLocationX,' +
              'RaingaugeLocationY,RainUnitID,TimeStep,StartDateTime,' +
              'endDateTime) VALUES (' +
              '"' + TokList[0] + '",0,0,' + inttostr(rainUnitID) + ',' +
              strTimeStep + ',' +
              '2.0' + ',' +
              '2.0' + ');';
        frmMain.Connection.Execute(sqlStr,recordsAffected,adCmdText);
        iRaingageID := modDatabase.DatabaseModule.GetRaingaugeIDForName(TokList[0]);
      end else begin //update existing one
        sqlStr := 'Update Raingauges set RaingaugeName = ' +
              '"' + TokList[0] + '", Timestep = ' +
              strTimeStep +
              ' Where RaingaugeID = ' + inttostr(iRaingageID);
        frmMain.Connection.Execute(sqlStr,recordsAffected,adCmdText);
      end;
      RaingageIDList.Add(inttostr(iRaingageID));
      boResult := true;
    end else begin
      RaingageIDList.Add('-1'); //placeholder for invalid entry
      boResult := false;
    end;
  end;
  boOK := boResult;
end;

procedure SWMM5RDIISectionReaderThread.AddRTKLinks;
//add a record to RTKLinks for each RTKPattern
var boResult: boolean;
    i, j, iRTKLinkID, iRTKPatternID, iSewershedID, iRDIIAreaID: integer;
    sqlStr, sSewerShedName, sRDIIAreaName: string;
    recordsAffected: OleVariant;
begin
  //hydname = sewershedname
  // scenarioID from frmmain
  // rtkpatternID from rtkpatternidlist where
  // raingaugeID from
  boResult := false;
  //for i := 0 to SewershedIDList.Count - 1 do begin
  for i := 0 to RDIIAreaIDList.Count - 1 do begin
    //Uutils.Tokenize(SewerShedList[i], TokList, Ntoks);
    Tokenize(SewerShedList[i], TokList, Ntoks);
    sSewerShedName := TokList[0];
    iSewerShedID := strtoint(SewershedIDList[i]);
    sRDIIAreaName := TokList[1];
    iRDIIAreaID := strtoint(RDIIAreaIDList[i]);
//    sRaingaugeID := GetRainGaugeID(sSewerShedName);
    GetRainGaugeID(sSewerShedName);
//    FeedbackLine := 'Sewershed ID: ' + SewerShedIDList[i] + ', ' + sSewerShedName;
//    Synchronize(AddFeedback);
    iRTKPatternID := -1;
    j := -1;
    repeat
      inc(j)
    until (j >= HydrographList.Count) or (
      (Length(HydrographList[j]) > Length(sSewerShedName))
      and
      (Copy(HydrographList[j],1,Length(sSewerShedName)) = sSewerShedName)
      and
      (RTKPatternIDList[j] <> '-1'));
    if (j < HydrographList.Count) then begin
      //add a new record to the RTKLinks table
      iRTKPatternID := strtoint(RTKPatternIDList[j]);
//      FeedbackLine := RTKPatternIDList[j] + ', ' +
//        'RDIIAreaName = ' + sRDIIAreaName + ', ' +
//        'SewerShedName = ' + sSewerShedName + ', ' + HydrographList[j];
//      Synchronize(AddFeedback);
      sqlStr := 'INSERT into RTKLinks (SewerShedID, RDIIAreaID, ' +
                ' RTKPatternID, RaingaugeID, ScenarioID) ' +
                ' VALUES (' +
                //rm 2007-11-26 - set sewershedid = -1 where rdiiareaid > 0
                //inttostr(iSewerShedID) + ', ' +
                ' -1, ' +
                inttostr(iRDIIAreaID) + ', ' +
                RTKPatternIDList[j] + ', ' +
                sRaingaugeID + ', ' +
                inttostr(FScenarioID) + ');';
      frmMain.Connection.Execute(sqlStr,recordsAffected,adCmdText);
    end;
  end;
  boResult := true;
  boOK := boResult;
end;

procedure SWMM5RDIISectionReaderThread.AddRTKPatterns;
//rm 2010-09-28 revised to accommodate new SWMM5 format with Initial Abstraction terms for each component set of RTKs
{
;;SWMM5 Version 5.0.13 [Hydrographs] Section Format Example:
[HYDROGRAPHS]
;;              	Rain Gage/      
;;Name          	Month           	R1      	T1      	K1      	R2      	T2      	K2      	R3      	T3      	K3      	IA_max  	IA_rec  	IA_init 
;;--------------	----------------	--------	--------	--------	--------	--------	--------	--------	--------	--------	--------	--------	--------
A-62              A-62
A-62              Jan             	0.019   	0.25    	1.5     	0.032   	0.5     	6       	0.061   	3       	10      	0       	0       	0
A-62              Feb             	0.011   	0.25    	1.5     	0.018   	0.5     	6       	0.046   	3       	10      	0       	0       	0
A-62              Mar             	0.011   	0.25    	1.5     	0.025   	0.5     	5       	0.049   	3       	10      	0       	0       	0
A-62              Apr             	0.007   	0.25    	1.5     	0.007   	0.5     	5       	0.026   	3       	10      	0       	0       	0
A-62              May             	0.007   	0.25    	1.5     	0.011   	0.5     	4       	0.034   	3       	10      	0       	0       	0
A-62              Jun             	0.003   	0.25    	1.5     	0.005   	0.5     	5       	0.019   	3       	10      	0       	0       	0
A-62              Jul             	0.002   	0.25    	1.5     	0.002   	0.5     	5       	0.015   	3       	10      	0       	0       	0
A-62              Aug             	0.002   	0.25    	1.5     	0.002   	0.5     	5       	0.007   	3       	10      	0       	0       	0
A-62              Sep             	0.003   	0.25    	1.25    	0.002   	0.5     	5       	0.011   	3       	10      	0       	0       	0
A-62              Oct             	0.006   	0.25    	1.5     	0.003   	0.5     	5       	0.015   	3       	10      	0       	0       	0
A-62              Nov             	0.015   	0.25    	1.5     	0.012   	0.5     	5       	0.027   	3       	10      	0       	0       	0
A-62              Dec             	0.012   	0.25    	1.5     	0.019   	0.5     	5       	0.034   	3       	10      	0       	0       	0       

;;SWMM5 Version 5.0.20 [Hydrographs] Section Format Example:
[HYDROGRAPHS]
;;               Rain Gage/      
;;Name           Month            Response R        T        K        IA_max   IA_rec   IA_ini  
;;-------------- ---------------- -------- -------- -------- -------- -------- -------- --------
LO_O01_S         GAGEO01S        
LO_O01_S         Jan              Short    0.001    0.5      1        0        0        0       
LO_O01_S         Jan              Medium   0.001    2.5      2.75     0        0        0       
LO_O01_S         Jan              Long     0.31     4.25     2.75     0        0        0       
LO_O01_S         Feb              Short    0.001    0.5      1        0        0        0       
LO_O01_S         Feb              Medium   0.15     2.5      2        0        0        0       
LO_O01_S         Feb              Long     0.35     5.5      4        0        0        0       
LO_O01_S         Mar              Short    0.001    0.25     1.25     0        0        0       
LO_O01_S         Mar              Medium   0.008    1        2.75     0        0        0       
LO_O01_S         Mar              Long     0.026    3        3        0        0        0       
LO_O01_S         Apr              Short    0.001    0.5      0.75     0        0        0
LO_O01_S         Apr              Medium   0.012    2        2.25     0        0        0       
LO_O01_S         Apr              Long     0.037    5.25     3.75     0        0        0       
LO_O01_S         May              Short    0.001    0.25     1        0        0        0       
LO_O01_S         May              Medium   0.007    1        1.5      0        0        0       
LO_O01_S         May              Long     0.021    3.5      2.5      0        0        0       
LO_O01_S         Jun              Short    0.001    0.25     2.5      0        0        0       
LO_O01_S         Jun              Medium   0.002    1        3        0        0        0       
LO_O01_S         Jun              Long     0.012    4.5      4        0        0        0       
LO_O01_S         Jul              Short    0.001    0.25     0.75     0        0        0       
LO_O01_S         Jul              Medium   0.003    0.75     2        0        0        0       
LO_O01_S         Jul              Long     0.011    3        1.75     0        0        0       
LO_O01_S         Aug              Short    0.001    0.25     0.75     0        0        0       
LO_O01_S         Aug              Medium   0.005    0.75     2        0        0        0       
LO_O01_S         Aug              Long     0.015    1.75     3        0        0        0       
LO_O01_S         Sep              Short    0.001    0.25     1        0        0        0       
LO_O01_S         Sep              Medium   0.007    0.5      1.5      0        0        0       
LO_O01_S         Sep              Long     0.019    2.25     2.75     0        0        0       
LO_O01_S         Oct              Short    0.001    0.5      0.75     0        0        0       
LO_O01_S         Oct              Medium   0.008    2.25     1.25     0        0        0       
LO_O01_S         Oct              Long     0.045    3.75     3        0        0        0       
LO_O01_S         Nov              Short    0.001    0.5      0.75     0        0        0       
LO_O01_S         Nov              Medium   0.002    2        2.5      0        0        0       
LO_O01_S         Nov              Long     0.018    5        2.5      0        0        0       
LO_O01_S         Dec              Short    0.001    0.5      1        0        0        0       
LO_O01_S         Dec              Medium   0.005    2        3.25     0        0        0       
LO_O01_S         Dec              Long     0.22     3        3.5      0        0        0       
}
var boResult: boolean;
    i, iRTKPatternID, iMon, iResp: integer;
    sqlStr, sRTKPAtternName, sMon, sResp: string;
    recordsAffected: OleVariant;
begin
  boResult := false;
  for i := 0 to HydrographList.Count - 1 do begin
    //add RTKPattern for those with >2 tokens in string
    //hydname, month, r1, t1, k1, r2, t2, k2, r3, t3, k3
    //Uutils.Tokenize(HydrographList[i], TokList, Ntoks);
    Tokenize(HydrographList[i], TokList, Ntoks);
    if (Ntoks > 2) then begin
      sRTKPatternName := TokList[0];
      sMon := TokList[1];
      iMon := modDatabase.DatabaseModule.GetMonthNumberForName(sMon);
      //get the "Response" (Short/Medium/Long)
      sResp := TokList[2];
      iResp := modDatabase.DatabaseModule.GetRTKPatternNumberForResponseName(sResp);
      //rm 2010-10-05 - if sResp ain't "Short" "Medium" or "Long" then this is an older format
      if (iResp > 0) then begin //iResp = -1 if sResp NOT IN ("Short", "Medium", "Long")
        iRTKPatternID := modDatabase.DatabaseModule.GetRTKPatternIDForNameAndMonth(sRTKPatternName, iMon);
        if iRTKPatternID < 0 then begin  //add a new record
          if TokList.Count > 6 then begin //include Abstraction Terms
            if (iResp = 1) then begin
              sqlStr := 'INSERT INTO RTKPatterns (RTKPatternName, Description, ' +
                  ' R1, T1, K1, AM, AR, AI, MON) VALUES ("' +
                  sRTKPatternName + '", "' + TokList[1] + ' from ' + FSWMM5InpFileName + '", ' +
                  TokList[3] + ',' + TokList[4] + ',' + TokList[5] + ',' +
                  TokList[6] + ',' + TokList[7] + ',' + TokList[8] + ',' + inttostr(iMon) + ');'
            end else begin
              sqlStr := 'INSERT INTO RTKPatterns (RTKPatternName, Description, ' +
                  ' R' + inttostr(iResp) + ', T' + inttostr(iResp) + ', K' + inttostr(iResp) +', ' +
                  ' AM' + inttostr(iResp) + ', AR' + inttostr(iResp) + ', AI' + inttostr(iResp) + ', MON) VALUES ("' +
                  sRTKPatternName + '", "' + TokList[1] + ' from ' + FSWMM5InpFileName + '", ' +
                  TokList[3] + ',' + TokList[4] + ',' + TokList[5] + ',' +
                  TokList[6] + ',' + TokList[7] + ',' + TokList[8] + ',' + inttostr(iMon) + ');';
            end; //if (iResp = 1)
          end else begin //no Abstraction Terms
              sqlStr := 'INSERT INTO RTKPatterns (RTKPatternName, Description, ' +
                  ' R' + inttostr(iResp) + ', T' + inttostr(iResp) + ', K' + inttostr(iResp) +', MON) ' +
                  ' VALUES ("' +
                  sRTKPatternName + '", "' + TokList[1] + ' from ' + FSWMM5InpFileName + '", ' +
                  TokList[3] + ',' + TokList[4] + ',' + TokList[5] + ',' + inttostr(iMon) + ');';
          end; //if TokList.Count > 6
        end {if iRTKPatternID < 0} else begin //edit the existing record
          if TokList.Count > 6 then begin //include Abstraction Terms
            if (iResp = 1) then begin
              sqlStr := 'UPDATE RTKPatterns set Description = "' +
                  TokList[1] + ' from ' + FSWMM5InpFileName + '", ' +
                  ' R1 = ' + TokList[3] + ',' +
                  ' T1 = ' + TokList[4] + ',' +
                  ' K1 = ' + TokList[5] + ',' +
                  ' AM = ' + TokList[6] + ',' +
                  ' AR = ' + TokList[7] + ',' +
                  ' AI = ' + TokList[8] +
                  ' WHERE RTKPatternID = ' + inttostr(iRTKPatternID) +
                  ' AND MON = ' + inttostr(iMon) + ';';
            end else begin
              sqlStr := 'UPDATE RTKPatterns set Description = "' +
                  TokList[1] + ' from ' + FSWMM5InpFileName + '", ' +
                  ' R' + inttostr(iResp) + ' = ' + TokList[3] + ',' +
                  ' T' + inttostr(iResp) + ' = ' + TokList[4] + ',' +
                  ' K' + inttostr(iResp) + ' = ' + TokList[5] + ',' +
                  ' AM' + inttostr(iResp) + ' = ' + TokList[6] + ',' +
                  ' AR' + inttostr(iResp) + ' = ' + TokList[7] + ',' +
                  ' AI' + inttostr(iResp) + ' = ' + TokList[8] +
                  ' WHERE RTKPatternID = ' + inttostr(iRTKPatternID) +
                  ' AND MON = ' + inttostr(iMon) + ';';
            end;
          end else begin //no abstraction terms
              sqlStr := 'UPDATE RTKPatterns set Description = "' +
                  TokList[1] + ' from ' + FSWMM5InpFileName + '", ' +
                  ' R' + inttostr(iResp) + ' = ' + TokList[3] + ',' +
                  ' T' + inttostr(iResp) + ' = ' + TokList[4] + ',' +
                  ' K' + inttostr(iResp) + ' = ' + TokList[5] +
                  ' WHERE RTKPatternID = ' + inttostr(iRTKPatternID) +
                  ' AND MON = ' + inttostr(iMon) + ';';
          end;
        end; //if iRTKPatternID < 0
        //FeedbackLine := sqlStr;
        //Synchronize(AddFeedback);
        frmMain.Connection.Execute(sqlStr,recordsAffected,adCmdText);
        RTKPatternIDList.Add(inttostr(iRTKPatternID));
        boResult := true;
      end {if (iResp > 0)} else begin //OLD Format - R1 T1 K1 R2 T2 K2 R3 T3 K3 AM AR AI - all on same line
        //iRTKPatternID := modDatabase.DatabaseModule.GetRTKPatternIDForName_(sRTKPatternName);
        iRTKPatternID := modDatabase.DatabaseModule.GetRTKPatternIDForNameAndMonth(sRTKPatternName, iMon);
        if iRTKPatternID < 0 then begin  //add a new record
          if TokList.Count > 13 then //include Abstraction Terms
            sqlStr := 'INSERT INTO RTKPatterns (RTKPatternName, Description, ' +
                    ' R1, T1, K1, R2, T2, K2, R3, T3, K3, ' +
                    ' AM, AR, AI, Mon) VALUES ("' +
                    sRTKPatternName + '", "' + TokList[1] + ' from ' + FSWMM5InpFileName + '", ' +
                    TokList[2] + ',' + TokList[3] + ',' + TokList[4] + ',' +
                    TokList[5] + ',' + TokList[6] + ',' + TokList[7] + ',' +
                    TokList[8] + ',' + TokList[9] + ',' + TokList[10] + ',' +
                    TokList[11] + ',' + TokList[12] + ',' + TokList[13] + //');'
                    ', ' + inttostr(iMon) + ');'
          else //no Abstraction Terms
            sqlStr := 'INSERT INTO RTKPatterns (RTKPatternName, Description, ' +
                    ' R1, T1, K1, R2, T2, K2, R3, T3, K3, Mon) VALUES ("' +
                    sRTKPatternName + '", "' + TokList[1] + ' from ' + FSWMM5InpFileName + '", ' +
                    TokList[2] + ',' + TokList[3] + ',' + TokList[4] + ',' +